Circuit: * D:\data\My Documents\Monash\Monash-BoSL\Velocity\Heterodyne\LT Simulations\Heterodyne.asc

.OP point found by inspection.
Ignoring empty pin current: Ix(u1:1)
Ignoring empty pin current: Ix(u1:2)
Ignoring empty pin current: Ix(u1:1)
Ignoring empty pin current: Ix(u1:2)

Date: Mon Dec 16 09:55:39 2019
Total elapsed time: 3.823 seconds.

tnom = 27
temp = 27
method = modified trap
totiter = 600034
traniter = 600034
tranpoints = 300018
accept = 300018
rejected = 0
matrix size = 9
fillins = 10
solver = Normal
Matrix Compiler1: 856 bytes object code size  0.6/0.3/[0.2]
Matrix Compiler2: 831 bytes object code size  0.3/0.4/[0.2]

